# cmdenv-express-mode = false # control msg printing
# cmdenv-autoflush = true # needed to avoid missing msgs on error
# cmdenv-message-trace = true  # info on every msg
#**.cmdenv-ev-output=false
**pktfwd.cmdenv-ev-output=true
**.cmdenv-ev-output=false

sim-time-limit = 2ms # max number of simulation seconds to run

[General]

##################################################################
# TOPOLOGY SPECIFIC
##################################################################
network = ib_model.examples.is4_3l_1944n.is4_3l_1944n

# cmdenv-runs-to-execute = 1
include ../../src/modules.ini
include ../../src/pcie_8x_g2.ini
##################################################################
# APP
##################################################################

# DESTINATION

# possible values are: param | seq_loop | seq_once seq_rand
**.dstMode = "seq_loop" # send in a loop follwing the dstSeq files
**H**.dstLid = 1 # intuniform(1,2) # ignored in current mode

include is4_3l_1944n.dstSeq.ini
**.app.dstSeqVecFile = "is4_3l_1944n.dstSeq"

# Msg Length
**.msgLenMode = "param"
**.msgMtuLen = 2048B
**.msgLength = 131072B # 128K messages
# not relevant for param mode but still required
**.msgLenSet = "1152 2048 4096"
**.msgLenProb = "1 1 1 1"
**.msg2msgGap = 1ns

# Others:
**.msgSQ = 0
**startStatCol = 100us

##################################################################
# GENERATOR     
##################################################################
**.maxContPkts = 10
**.popDlyPerByte = 0.25ns
**.maxQueuedPerVL = 4
**.flit2FlitGap = 0.001ns
**.pkt2PktGap = 0.001ns

##################################################################
# PKTFWD
##################################################################
**.pktFwdType = "Pktfwd"

# generated file holding port groups and FDBs vector indexes
**.pktfwd.fdbsVecFile = "is4_3l_1944n.fdbs"
include is4_3l_1944n.fdbs.ini

##################################################################
# IBUF  
##################################################################
# speedup
**ibuf.maxBeingSent = 3
**ibuf.maxStatic0 = 800 # in credits
**ibuf.totalBufferSize = 1000 # in credits

##################################################################
# SINK
##################################################################

#####################################
# RUNS
#####################################

[Config RandPermHalfBW]
**.app.dstSeqVecFile = "rand_32_perms_1944_nodes.dstSeq"
**.gen.genDlyPerByte = 0.53ns
